<?xml version="1.0" encoding="UTF-8"?>

<!-- generated on 2024-10-08 19:45:48.606898 by osmWebWizard.py v1_20_0+0002-343658e7c64
<configuration>
    <net-file value="D:\KGP\MTP\Sim1\2024-10-08-19-45-28\osm.net.xml.gz"/>
    <output-trip-file value="D:\KGP\MTP\Sim1\2024-10-08-19-45-28\osm.passenger.trips.xml"/>
    <route-file value="D:\KGP\MTP\Sim1\2024-10-08-19-45-28\osm.passenger.rou.xml"/>
    <prefix value="veh"/>
    <trip-attributes value="departLane=&quot;best&quot;"/>
    <fringe-start-attributes value="departSpeed=&quot;max&quot;"/>
    <vehicle-class value="passenger"/>
    <lanes value="True"/>
    <fringe-factor value="5"/>
    <allow-fringe.min-length value="1000.0"/>
    <via-edge-types value="highway.motorway,highway.motorway_link,highway.trunk_link,highway.primary_link,highway.secondary_link,highway.tertiary_link"/>
    <min-distance value="300.0"/>
    <min-distance.fringe value="10.0"/>
    <remove-loops value="True"/>
    <validate value="True"/>
    <end value="360.0"/>
    <insertion-density value="12.0"/>
</configuration>
-->

<!-- generated on 2024-10-08 19:45:48 by Eclipse SUMO duarouter Version 1.20.0
<configuration xmlns:xsi="http://www.w3.org/2001/XMLSchema-instance" xsi:noNamespaceSchemaLocation="http://sumo.dlr.de/xsd/duarouterConfiguration.xsd">

    <input>
        <net-file value="D:\KGP\MTP\Sim1\2024-10-08-19-45-28\osm.net.xml.gz"/>
        <route-files value="D:\KGP\MTP\Sim1\2024-10-08-19-45-28\osm.passenger.trips.xml"/>
    </input>

    <output>
        <output-file value="D:\KGP\MTP\Sim1\2024-10-08-19-45-28\osm.passenger.trips.xml.tmp"/>
        <alternatives-output value="NUL"/>
        <write-trips value="true"/>
    </output>

    <processing>
        <remove-loops value="true"/>
    </processing>

    <time>
        <begin value="0.0"/>
        <end value="360.0"/>
    </time>

    <report>
        <no-warnings value="true"/>
        <ignore-errors value="true"/>
        <no-step-log value="true"/>
    </report>

</configuration>
-->

<routes xmlns:xsi="http://www.w3.org/2001/XMLSchema-instance" xsi:noNamespaceSchemaLocation="http://sumo.dlr.de/xsd/routes_file.xsd">
    <vType id="emergency_veh" guiShape="emergency" vClass="emergency" speedFactor="1.5">
        <param key="has.bluelight.device" value="true"/>
    </vType>
    <vType id="veh_passenger" vClass="passenger"/>
    <trip id="veh0" type="veh_passenger" depart="0.00" departLane="best" from="27118048#7" to="1304405013"/>
    <trip id="veh1" type="veh_passenger" depart="1.06" departLane="best" from="-371684000" to="-29104219#0"/>
    <trip id="veh2" type="veh_passenger" depart="2.12" departLane="best" from="29104150#4" to="28088993"/>
    <trip id="veh3" type="veh_passenger" depart="3.19" departLane="best" from="-93466800" to="-262644754#3"/>
    <trip id="veh4" type="veh_passenger" depart="4.25" departLane="best" from="-262810114#0" to="-1304590848#0"/>
    <trip id="veh5" type="veh_passenger" depart="5.31" departLane="best" from="-29104177#6" to="-184313819#4"/>
    <trip id="veh6" type="veh_passenger" depart="6.37" departLane="best" from="-1304405891" to="-29104050#2"/>
    <trip id="veh7" type="veh_passenger" depart="7.43" departLane="best" from="27210692#1" to="262654856#4"/>
    <trip id="veh8" type="veh_passenger" depart="8.50" departLane="best" from="29104185#1" to="264886893#0"/>
    <trip id="veh9" type="veh_passenger" depart="9.56" departLane="best" from="371683984" to="-1065133652#0"/>
    <trip id="veh10" type="veh_passenger" depart="10.62" departLane="best" from="-371462415#0" to="29103651#1"/>
    <trip id="veh11" type="veh_passenger" depart="11.68" departLane="best" from="-93470295#0" to="-281248554#1"/>
    <trip id="veh12" type="veh_passenger" depart="12.74" departLane="best" from="93624828#0" to="93470293#2"/>
    <trip id="veh13" type="veh_passenger" depart="13.80" departLane="best" from="-262648505" to="-262682409#1"/>
    <trip id="veh14" type="veh_passenger" depart="14.87" departLane="best" from="779091489#17" to="27082729#24"/>
    <trip id="veh15" type="veh_passenger" depart="15.93" departLane="best" from="371462421#2" to="29104070#1"/>
    <trip id="veh16" type="veh_passenger" depart="16.99" departLane="best" from="262647877#1" to="93628410#4"/>
    <trip id="veh17" type="veh_passenger" depart="18.05" departLane="best" from="93620634#5" to="262683844#10"/>
    <trip id="veh18" type="veh_passenger" depart="19.11" departLane="best" from="372646899#3" to="264885191#1"/>
    <trip id="veh19" type="veh_passenger" depart="20.18" departLane="best" from="779091520#0-AddedOffRampEdge" to="262828317#0"/>
    <trip id="veh20" type="veh_passenger" depart="21.24" departLane="best" from="29103711" to="148818582#1"/>
    <trip id="veh21" type="veh_passenger" depart="22.30" departLane="best" from="-29104446#1" to="-505271107#0"/>
    <trip id="veh22" type="veh_passenger" depart="23.36" departLane="best" from="262642464#3" to="-308766881#2"/>
    <trip id="veh23" type="veh_passenger" depart="24.42" departLane="best" from="262810109#1" to="-371686541#1"/>
    <trip id="veh24" type="veh_passenger" depart="25.49" departLane="best" from="27117981#2" to="-93470338#2"/>
    <trip id="veh25" type="veh_passenger" depart="26.55" departLane="best" from="93620629#12" to="-29104131#0"/>
    <trip id="veh26" type="veh_passenger" depart="27.61" departLane="best" from="371462404#1" to="93470336#0"/>
    <trip id="veh27" type="veh_passenger" depart="28.67" departLane="best" from="27210686#2" to="-311295634#0"/>
    <trip id="veh28" type="veh_passenger" depart="29.73" departLane="best" from="-29103625#4" to="-29104068#1"/>
    <trip id="veh29" type="veh_passenger" depart="30.80" departLane="best" from="-29103591#0" to="-93621728#0"/>
    <trip id="veh30" type="veh_passenger" depart="31.86" departLane="best" from="993886186" to="27118013#3"/>
    <trip id="veh31" type="veh_passenger" depart="32.92" departLane="best" from="262807081" to="29103543#2"/>
    <trip id="veh32" type="veh_passenger" depart="33.98" departLane="best" from="505271107#1" to="-311295634#3"/>
    <trip id="veh33" type="veh_passenger" depart="35.04" departLane="best" from="-29104458#3" to="-1304590851#2"/>
    <trip id="veh34" type="veh_passenger" depart="36.10" departLane="best" from="93466790#2" to="-371462413#2"/>
    <trip id="veh35" type="veh_passenger" depart="37.17" departLane="best" from="-29104131#1" to="93620629#2"/>
    <trip id="veh36" type="veh_passenger" depart="38.23" departLane="best" from="-876451092#1" to="93466793#1"/>
    <trip id="veh37" type="veh_passenger" depart="39.29" departLane="best" from="-27210754#9" to="93628410#3"/>
    <trip id="veh38" type="veh_passenger" depart="40.35" departLane="best" from="93470298#0" to="1235170614#1"/>
    <trip id="veh39" type="veh_passenger" depart="41.41" departLane="best" from="262807084#7" to="-320416437#1"/>
    <trip id="veh40" type="veh_passenger" depart="42.48" departLane="best" from="264883964#6" to="-93470264#0"/>
    <trip id="veh41" type="veh_passenger" depart="43.54" departLane="best" from="-93628413#1" to="-29104185#2"/>
    <trip id="veh42" type="veh_passenger" depart="44.60" departLane="best" from="993972354" to="-202255144#8"/>
    <trip id="veh43" type="veh_passenger" depart="45.66" departLane="best" from="-262648247#2" to="-148818585#1"/>
    <trip id="veh44" type="veh_passenger" depart="46.72" departLane="best" from="-264881159" to="27117517#16"/>
    <trip id="veh45" type="veh_passenger" depart="47.79" departLane="best" from="314574767#2" to="1009546551#1"/>
    <trip id="veh46" type="veh_passenger" depart="48.85" departLane="best" from="-235298907#1" to="93624819#1"/>
    <trip id="veh47" type="veh_passenger" depart="49.91" departLane="best" from="993972349#0" to="-262642464#1"/>
    <trip id="veh48" type="veh_passenger" depart="50.97" departLane="best" from="93628406#2" to="779091518#6"/>
    <trip id="veh49" type="veh_passenger" depart="52.03" departLane="best" from="-1120259423" to="29103963#0"/>
    <trip id="veh50" type="veh_passenger" depart="53.10" departLane="best" from="29103497#6" to="262644754#1"/>
    <trip id="veh51" type="veh_passenger" depart="54.16" departLane="best" from="-371462404#0" to="-27118013#9"/>
    <trip id="veh53" type="veh_passenger" depart="56.28" departLane="best" from="1185871692" to="93621631#1"/>
    <trip id="veh54" type="veh_passenger" depart="57.34" departLane="best" from="-876451059#1" to="-371462393#0"/>
    <trip id="veh55" type="veh_passenger" depart="58.40" departLane="best" from="148818604#2" to="29103704#0"/>
    <trip id="veh56" type="veh_passenger" depart="59.47" departLane="best" from="93470295#2" to="-872978929#0"/>
    <trip id="veh58" type="veh_passenger" depart="61.59" departLane="best" from="27116790#8" to="-28088971#2"/>
    <trip id="veh59" type="veh_passenger" depart="62.65" departLane="best" from="304334916#3" to="262647915#0"/>
    <trip id="veh60" type="veh_passenger" depart="63.71" departLane="best" from="314564901#1" to="262642574#0"/>
    <trip id="veh61" type="veh_passenger" depart="64.78" departLane="best" from="261931265#4" to="-93470266"/>
    <trip id="veh62" type="veh_passenger" depart="65.84" departLane="best" from="-262637979#0" to="-93470322#0"/>
    <trip id="veh63" type="veh_passenger" depart="66.90" departLane="best" from="876451107#0" to="372646899#3"/>
    <trip id="veh64" type="veh_passenger" depart="67.96" departLane="best" from="876451102" to="93620631#2"/>
    <trip id="veh65" type="veh_passenger" depart="69.02" departLane="best" from="-262643223#6" to="1304799492#8"/>
    <trip id="veh66" type="veh_passenger" depart="70.09" departLane="best" from="-262637979#3" to="372646899#9"/>
    <trip id="veh67" type="veh_passenger" depart="71.15" departLane="best" from="304646594#0" to="-27210664"/>
    <trip id="veh68" type="veh_passenger" depart="72.21" departLane="best" from="1304590849#1" to="-262682410#1"/>
    <trip id="veh69" type="veh_passenger" depart="73.27" departLane="best" from="-371462393#0" to="872978932#0"/>
    <trip id="veh70" type="veh_passenger" depart="74.33" departLane="best" from="-993972359" to="29104150#2"/>
    <trip id="veh71" type="veh_passenger" depart="75.40" departLane="best" from="262648501#1" to="29104070#2"/>
    <trip id="veh72" type="veh_passenger" depart="76.46" departLane="best" from="-29104052#3" to="-93466787"/>
    <trip id="veh73" type="veh_passenger" depart="77.52" departLane="best" from="993972345#1" to="-27210664"/>
    <trip id="veh74" type="veh_passenger" depart="78.58" departLane="best" from="27118013#7" to="-29104227#4"/>
    <trip id="veh75" type="veh_passenger" depart="79.64" departLane="best" from="93470292" to="264885191#1"/>
    <trip id="veh76" type="veh_passenger" depart="80.70" departLane="best" from="-29104472#10" to="-29104186#3"/>
    <trip id="veh77" type="veh_passenger" depart="81.77" departLane="best" from="262638293#2" to="27117517#5"/>
    <trip id="veh78" type="veh_passenger" depart="82.83" departLane="best" from="-29104458#3" to="93470280#7"/>
    <trip id="veh79" type="veh_passenger" depart="83.89" departLane="best" from="779091518#6" to="-262638293#4"/>
    <trip id="veh80" type="veh_passenger" depart="84.95" departLane="best" from="-314142184" to="280679881#0"/>
    <trip id="veh81" type="veh_passenger" depart="86.01" departLane="best" from="29104151#2" to="-27210698#1"/>
    <trip id="veh82" type="veh_passenger" depart="87.08" departLane="best" from="-93470333#0" to="262810113#0"/>
    <trip id="veh83" type="veh_passenger" depart="88.14" departLane="best" from="-1304573255" to="314568955#4"/>
    <trip id="veh84" type="veh_passenger" depart="89.20" departLane="best" from="371683955#0" to="-29103923#2"/>
    <trip id="veh85" type="veh_passenger" depart="90.26" departLane="best" from="262682409#0" to="1044624264"/>
    <trip id="veh86" type="veh_passenger" depart="91.32" departLane="best" from="-993978289" to="1304388873#0"/>
    <trip id="veh87" type="veh_passenger" depart="92.39" departLane="best" from="29104071#4" to="28088931#4"/>
    <trip id="veh88" type="veh_passenger" depart="93.45" departLane="best" from="93628492#1" to="262807087"/>
    <trip id="veh89" type="veh_passenger" depart="94.51" departLane="best" from="-93628421#0" to="-93470297#0"/>
    <trip id="veh90" type="veh_passenger" depart="95.57" departLane="best" from="779091520#0-AddedOffRampEdge" to="-314570489#0"/>
    <trip id="veh91" type="veh_passenger" depart="96.63" departLane="best" from="29103817#1" to="1185496576#6"/>
    <trip id="veh92" type="veh_passenger" depart="97.70" departLane="best" from="-993972355#0" to="-371686542#2"/>
    <trip id="veh93" type="veh_passenger" depart="98.76" departLane="best" from="-314570488#1" to="93470310#3"/>
    <trip id="veh94" type="veh_passenger" depart="99.82" departLane="best" from="1111781639" to="779091518#8"/>
    <trip id="veh95" type="veh_passenger" depart="100.88" departLane="best" from="-93620629#1" to="-148818598"/>
    <trip id="veh96" type="veh_passenger" depart="101.94" departLane="best" from="-993978290" to="505242451#0"/>
    <trip id="veh97" type="veh_passenger" depart="103.00" departLane="best" from="-93628399#9" to="93470317#2"/>
    <trip id="veh98" type="veh_passenger" depart="104.07" departLane="best" from="27239006#3" to="-29103612#0"/>
    <trip id="veh99" type="veh_passenger" depart="105.13" departLane="best" from="1304799492#8" to="-29104155#1"/>
    <trip id="veh100" type="veh_passenger" depart="106.19" departLane="best" from="-93628419#2" to="-202255144#6"/>
    <trip id="veh101" type="veh_passenger" depart="107.25" departLane="best" from="93620634#7" to="93628495#3"/>
    <trip id="veh102" type="veh_passenger" depart="108.31" departLane="best" from="-371462393#1" to="314568955#1"/>
    <trip id="veh103" type="veh_passenger" depart="109.38" departLane="best" from="1196749744" to="1009546551#1"/>
    <trip id="veh104" type="veh_passenger" depart="110.44" departLane="best" from="93624828#1" to="993972346#0"/>
    <trip id="veh105" type="veh_passenger" depart="111.50" departLane="best" from="1197046017#2" to="-29103935#2"/>
    <trip id="veh106" type="veh_passenger" depart="112.56" departLane="best" from="-28089002#5" to="-872978929#6"/>
    <trip id="veh107" type="veh_passenger" depart="113.62" departLane="best" from="-93628399#7" to="264881164"/>
    <trip id="veh108" type="veh_passenger" depart="114.69" departLane="best" from="262654853" to="29104206"/>
    <trip id="veh109" type="veh_passenger" depart="115.75" departLane="best" from="-202252739#3" to="264883964#16"/>
    <trip id="veh110" type="veh_passenger" depart="116.81" departLane="best" from="184313819#2" to="779091502#1-AddedOffRampEdge"/>
    <trip id="veh111" type="veh_passenger" depart="117.87" departLane="best" from="29103356#1" to="93624837#0"/>
    <trip id="veh112" type="veh_passenger" depart="118.93" departLane="best" from="262642464#5" to="29103776#1"/>
    <trip id="veh113" type="veh_passenger" depart="120.00" departLane="best" from="264883964#1" to="-28088934#6"/>
    <trip id="veh114" type="veh_passenger" depart="121.06" departLane="best" from="-308766883#0" to="-27118013#5"/>
    <trip id="veh115" type="veh_passenger" depart="122.12" departLane="best" from="93466796" to="-314568957"/>
    <trip id="veh116" type="veh_passenger" depart="123.18" departLane="best" from="27082729#1" to="27116911#5"/>
    <trip id="veh117" type="veh_passenger" depart="124.24" departLane="best" from="-993972345#0" to="264883964#13"/>
    <trip id="veh118" type="veh_passenger" depart="125.30" departLane="best" from="262638527#2" to="93470331#2"/>
    <trip id="veh119" type="veh_passenger" depart="126.37" departLane="best" from="29104067#1" to="-29103821#1"/>
    <trip id="veh120" type="veh_passenger" depart="127.43" departLane="best" from="-314142214#0" to="-93628410#4"/>
    <trip id="veh121" type="veh_passenger" depart="128.49" departLane="best" from="-28088934#0" to="-872978938"/>
    <trip id="veh122" type="veh_passenger" depart="129.55" departLane="best" from="-93466792#0" to="-29104276#0"/>
    <trip id="veh123" type="veh_passenger" depart="130.61" departLane="best" from="-262638295#0" to="1235170614#1"/>
    <trip id="veh124" type="veh_passenger" depart="131.68" departLane="best" from="-993972358" to="993972349#0"/>
    <trip id="veh125" type="veh_passenger" depart="132.74" departLane="best" from="-262638296#1" to="-29104152#1"/>
    <trip id="veh126" type="veh_passenger" depart="133.80" departLane="best" from="-371462393#1" to="93470329#2"/>
    <trip id="veh127" type="veh_passenger" depart="134.86" departLane="best" from="-93620628#2" to="-29103497#10"/>
    <trip id="veh129" type="veh_passenger" depart="136.99" departLane="best" from="505242452#4" to="963672514#0"/>
    <trip id="veh130" type="veh_passenger" depart="138.05" departLane="best" from="-27210754#3" to="-1078707886#4"/>
    <trip id="veh131" type="veh_passenger" depart="139.11" departLane="best" from="371686563#1" to="872978934#4"/>
    <trip id="veh132" type="veh_passenger" depart="140.17" departLane="best" from="280677443" to="93470336#9"/>
    <trip id="veh133" type="veh_passenger" depart="141.23" departLane="best" from="-27210706#0" to="-27117941#2"/>
    <trip id="veh134" type="veh_passenger" depart="142.30" departLane="best" from="371683955#0" to="27082729#3"/>
    <trip id="veh135" type="veh_passenger" depart="143.36" departLane="best" from="29103951#0" to="29104070#0"/>
    <trip id="veh136" type="veh_passenger" depart="144.42" departLane="best" from="27117952#6" to="371462393#3"/>
    <trip id="veh137" type="veh_passenger" depart="145.48" departLane="best" from="-1305352601" to="93470280#7"/>
    <trip id="veh138" type="veh_passenger" depart="146.54" departLane="best" from="779091489#13" to="262648506"/>
    <trip id="veh139" type="veh_passenger" depart="147.60" departLane="best" from="-993978289" to="-371686533#1"/>
    <trip id="veh140" type="veh_passenger" depart="148.67" departLane="best" from="-1012935579#1" to="304646594#4"/>
    <trip id="veh141" type="veh_passenger" depart="149.73" departLane="best" from="-27118013#6" to="-320416433"/>
    <trip id="veh142" type="veh_passenger" depart="150.79" departLane="best" from="29104177#4" to="262683844#1"/>
    <trip id="veh143" type="veh_passenger" depart="151.85" departLane="best" departSpeed="max" from="1010484626" to="1083520879"/>
    <trip id="veh144" type="veh_passenger" depart="152.91" departLane="best" from="262638528#2" to="93466781#0"/>
    <trip id="veh145" type="veh_passenger" depart="153.98" departLane="best" from="93470280#2" to="262654858#1"/>
    <trip id="veh147" type="veh_passenger" depart="156.10" departLane="best" from="-28088868#1" to="-27210657#2"/>
    <trip id="veh149" type="veh_passenger" depart="158.22" departLane="best" from="-320016422#2" to="779091518#6"/>
    <trip id="veh150" type="veh_passenger" depart="159.29" departLane="best" from="93470270#0" to="29104149#3"/>
    <trip id="veh151" type="veh_passenger" depart="160.35" departLane="best" from="314570488#0" to="-262810115#1"/>
    <trip id="veh152" type="veh_passenger" depart="161.41" departLane="best" from="-93628473#0" to="27116911#6"/>
    <trip id="veh153" type="veh_passenger" depart="162.47" departLane="best" from="-28089002#4" to="93470324#1"/>
    <trip id="veh154" type="veh_passenger" depart="163.53" departLane="best" from="371684002" to="-93466772"/>
    <trip id="veh155" type="veh_passenger" depart="164.60" departLane="best" from="-1304392186" to="29104149#5"/>
    <trip id="veh156" type="veh_passenger" depart="165.66" departLane="best" from="93470280#6" to="93470324#5"/>
    <trip id="veh157" type="veh_passenger" depart="166.72" departLane="best" from="371462403#0" to="779091520#4-AddedOnRampEdge"/>
    <trip id="veh158" type="veh_passenger" depart="167.78" departLane="best" from="371684002" to="371462408#1"/>
    <trip id="veh159" type="veh_passenger" depart="168.84" departLane="best" from="314570491#1" to="262828317#1"/>
    <trip id="veh161" type="veh_passenger" depart="170.97" departLane="best" from="-29104200#2" to="371686536#1"/>
    <trip id="veh162" type="veh_passenger" depart="172.03" departLane="best" from="-1225820871" to="-876451107#3"/>
    <trip id="veh163" type="veh_passenger" depart="173.09" departLane="best" from="320016420#0" to="29104458#3"/>
    <trip id="veh164" type="veh_passenger" depart="174.15" departLane="best" from="-1304386671" to="-29103951#0"/>
    <trip id="veh165" type="veh_passenger" depart="175.21" departLane="best" from="-93470276#0" to="779091520#5"/>
    <trip id="veh166" type="veh_passenger" depart="176.28" departLane="best" from="-93628399#11" to="-371686546#0"/>
    <trip id="veh167" type="veh_passenger" depart="177.34" departLane="best" from="27118807#1" to="-93628419#7"/>
    <trip id="veh168" type="veh_passenger" depart="178.40" departLane="best" from="-93628456#2" to="262643258#0"/>
    <trip id="veh169" type="veh_passenger" depart="179.46" departLane="best" from="93470338#3" to="-27117941#2"/>
    <trip id="veh170" type="veh_passenger" depart="180.52" departLane="best" from="-93628405#4" to="-29103704#0"/>
    <trip id="veh171" type="veh_passenger" depart="181.59" departLane="best" from="93624846#2" to="-371462404#1"/>
    <trip id="veh173" type="veh_passenger" depart="183.71" departLane="best" from="29104071#0" to="-93466790#3"/>
    <trip id="veh174" type="veh_passenger" depart="184.77" departLane="best" from="27116790#1" to="235298896#3"/>
    <trip id="veh175" type="veh_passenger" depart="185.83" departLane="best" from="-314574765" to="-29103727#1"/>
    <trip id="veh176" type="veh_passenger" depart="186.90" departLane="best" from="-1012935577#0" to="93470315#3"/>
    <trip id="veh177" type="veh_passenger" depart="187.96" departLane="best" from="262648247#0" to="-29103951#0"/>
    <trip id="veh178" type="veh_passenger" depart="189.02" departLane="best" from="29104178" to="-280679887#1"/>
    <trip id="veh179" type="veh_passenger" depart="190.08" departLane="best" from="-93470333#2" to="-262638293#0"/>
    <trip id="veh180" type="veh_passenger" depart="191.14" departLane="best" from="280677669" to="-93470280#6"/>
    <trip id="veh181" type="veh_passenger" depart="192.20" departLane="best" from="-93466788#1" to="779091489#15"/>
    <trip id="veh182" type="veh_passenger" depart="193.27" departLane="best" from="-29103964" to="872978939"/>
    <trip id="veh183" type="veh_passenger" depart="194.33" departLane="best" from="-93466777" to="-93628495#6"/>
    <trip id="veh184" type="veh_passenger" depart="195.39" departLane="best" from="-93628419#8" to="-872978929#2"/>
    <trip id="veh185" type="veh_passenger" depart="196.45" departLane="best" from="-27210656#0" to="-993972359"/>
    <trip id="veh186" type="veh_passenger" depart="197.51" departLane="best" from="93470339#2" to="28088996#1"/>
    <trip id="veh187" type="veh_passenger" depart="198.58" departLane="best" from="-93470280#10" to="27116911#11"/>
    <trip id="veh189" type="veh_passenger" depart="200.70" departLane="best" from="-1009547773" to="-463143567#0"/>
    <trip id="veh191" type="veh_passenger" depart="202.82" departLane="best" from="27210754#6" to="1303884883"/>
    <trip id="veh193" type="veh_passenger" depart="204.95" departLane="best" from="1304578497" to="872978935#1"/>
    <trip id="veh194" type="veh_passenger" depart="206.01" departLane="best" from="320016422#1" to="29103625#2"/>
    <trip id="veh195" type="veh_passenger" depart="207.07" departLane="best" from="262643223#3" to="262637568"/>
    <trip id="veh196" type="veh_passenger" depart="208.13" departLane="best" from="27117952#0" to="-93470290#2"/>
    <trip id="veh197" type="veh_passenger" depart="209.20" departLane="best" from="371688340" to="-29104227#4"/>
    <trip id="veh198" type="veh_passenger" depart="210.26" departLane="best" from="-28088934#4" to="-29104227#4"/>
    <trip id="veh199" type="veh_passenger" depart="211.32" departLane="best" from="-29104026#7" to="-1304391762"/>
    <trip id="veh200" type="veh_passenger" depart="212.38" departLane="best" from="314568069#7" to="1304590850#0"/>
    <trip id="veh201" type="veh_passenger" depart="213.44" departLane="best" from="779091489#26" to="262638296#1"/>
    <trip id="veh202" type="veh_passenger" depart="214.50" departLane="best" from="-993886189" to="1121631870#0"/>
    <trip id="veh203" type="veh_passenger" depart="215.57" departLane="best" from="29103951#0" to="29103645#2"/>
    <trip id="veh204" type="veh_passenger" depart="216.63" departLane="best" from="-148818582#0" to="314568955#1"/>
    <trip id="veh206" type="veh_passenger" depart="218.75" departLane="best" from="29104407" to="304646594#1"/>
    <trip id="veh207" type="veh_passenger" depart="219.81" departLane="best" from="-262810120#0" to="-1012009845#0"/>
    <trip id="veh208" type="veh_passenger" depart="220.88" departLane="best" from="-29103666#1" to="93624828#2"/>
    <trip id="veh209" type="veh_passenger" depart="221.94" departLane="best" from="262638226#1" to="148818595#5"/>
    <trip id="veh210" type="veh_passenger" depart="223.00" departLane="best" from="314570487#1" to="779091489#17"/>
    <trip id="veh211" type="veh_passenger" depart="224.06" departLane="best" from="1197046017#2" to="320178878#3"/>
    <trip id="veh212" type="veh_passenger" depart="225.12" departLane="best" from="280679883" to="-202257193#1"/>
    <trip id="veh213" type="veh_passenger" depart="226.19" departLane="best" from="27082729#12" to="-93620634#2"/>
    <trip id="veh214" type="veh_passenger" depart="227.25" departLane="best" from="93466798#5" to="27116790#8"/>
    <trip id="veh215" type="veh_passenger" depart="228.31" departLane="best" from="29103963#1" to="184313819#1"/>
    <trip id="veh216" type="veh_passenger" depart="229.37" departLane="best" from="304334916#15" to="262682407#4"/>
    <trip id="veh217" type="veh_passenger" depart="230.43" departLane="best" from="93470264#0" to="29104178"/>
    <trip id="veh218" type="veh_passenger" depart="231.50" departLane="best" from="1304590848#0" to="320016423#3"/>
    <trip id="veh219" type="veh_passenger" depart="232.56" departLane="best" from="-314568956#2" to="27117952#6"/>
    <trip id="veh220" type="veh_passenger" depart="233.62" departLane="best" from="304646594#0" to="-262638293#4"/>
    <trip id="veh221" type="veh_passenger" depart="234.68" departLane="best" from="27117517#3" to="371684020#1"/>
    <trip id="veh222" type="veh_passenger" depart="235.74" departLane="best" from="-262642229#6" to="-371688364#2"/>
    <trip id="veh223" type="veh_passenger" depart="236.80" departLane="best" from="-371462421#1" to="93470255#1"/>
    <trip id="veh224" type="veh_passenger" depart="237.87" departLane="best" from="-262648503#1" to="27210761#5"/>
    <trip id="veh225" type="veh_passenger" depart="238.93" departLane="best" from="-29104472#6" to="29103621#6"/>
    <trip id="veh226" type="veh_passenger" depart="239.99" departLane="best" from="29103722#1" to="-261931265#2"/>
    <trip id="veh227" type="veh_passenger" depart="241.05" departLane="best" from="-93628478" to="262648506"/>
    <trip id="veh228" type="veh_passenger" depart="242.11" departLane="best" from="-993886195#0" to="-29104110#1"/>
    <trip id="veh229" type="veh_passenger" depart="243.18" departLane="best" from="-993972348" to="93470280#4"/>
    <trip id="veh230" type="veh_passenger" depart="244.24" departLane="best" from="264883964#4" to="29103625#6"/>
    <trip id="veh231" type="veh_passenger" depart="245.30" departLane="best" from="779091518#0" to="304334916#20"/>
    <trip id="veh232" type="veh_passenger" depart="246.36" departLane="best" from="-93621623" to="-1062852678#0"/>
    <trip id="veh233" type="veh_passenger" depart="247.42" departLane="best" from="-93470313#5" to="29104446#4"/>
    <trip id="veh234" type="veh_passenger" depart="248.49" departLane="best" from="779091502#9" to="93621629#4"/>
    <trip id="veh235" type="veh_passenger" depart="249.55" departLane="best" from="-993972344" to="-29104201"/>
    <trip id="veh236" type="veh_passenger" depart="250.61" departLane="best" from="27117192#5" to="27082729#23"/>
    <trip id="veh237" type="veh_passenger" depart="251.67" departLane="best" from="93625259#5" to="-1304580097"/>
    <trip id="veh238" type="veh_passenger" depart="252.73" departLane="best" from="-93470288#0" to="28089008#0"/>
    <trip id="veh239" type="veh_passenger" depart="253.80" departLane="best" from="93628434#2" to="29103604#4"/>
    <trip id="veh240" type="veh_passenger" depart="254.86" departLane="best" from="1304388408" to="-27210657#3"/>
    <trip id="veh241" type="veh_passenger" depart="255.92" departLane="best" from="27117517#12" to="-1304572249#0"/>
    <trip id="veh242" type="veh_passenger" depart="256.98" departLane="best" from="93628399#5" to="262807084#5"/>
    <trip id="veh243" type="veh_passenger" depart="258.04" departLane="best" from="-1304572249#0" to="-27118048#7"/>
    <trip id="veh244" type="veh_passenger" depart="259.10" departLane="best" from="-27210754#1" to="1235170614#1"/>
    <trip id="veh245" type="veh_passenger" depart="260.17" departLane="best" from="148818595#4" to="93621630#1"/>
    <trip id="veh246" type="veh_passenger" depart="261.23" departLane="best" from="-29104149#4" to="93470279#1"/>
    <trip id="veh247" type="veh_passenger" depart="262.29" departLane="best" from="-93628502#0" to="93621630#1"/>
    <trip id="veh248" type="veh_passenger" depart="263.35" departLane="best" from="29104458#0" to="372646899#3"/>
    <trip id="veh249" type="veh_passenger" depart="264.41" departLane="best" from="-314570802#0" to="262643222#0"/>